15

C         -1.39656       -0.07398       -0.10374
C         -0.75473        1.17085       -0.05014
C          0.63772        1.24649        0.01446
C          1.39997        0.08004        0.03727
C          0.77110       -1.16317        0.00252
C         -0.62120       -1.24080       -0.06189
H         -1.09876       -2.21826       -0.07369
H          1.36489       -2.07306        0.03264
H          2.48379        0.13973        0.09150
H          1.12759        2.21600        0.05395
H         -1.33667        2.08999       -0.05281
C         -2.89617       -0.15820       -0.15128
F         -3.45507       -0.23555        1.08748
H         -3.31805        0.71811       -0.65479
H         -3.21494       -1.03930       -0.71838
