18

C          0.73191        1.25304       -0.22529
C         -0.72301        1.25669        0.22511
C         -1.45208       -0.00344       -0.22906
C         -0.72276       -1.26683        0.22328
C          0.73814       -1.26737       -0.22227
C          1.46269       -0.00360        0.22925
H          2.48663        0.00485       -0.16146
H          1.55583        0.00402        1.32244
H          0.78517       -1.34369       -1.31556
H          1.24698       -2.14959        0.18204
H         -1.23131       -2.15024       -0.17893
H         -0.76920       -1.34137        1.31677
H         -1.53495       -0.00269       -1.32285
H         -2.47296       -0.00383        0.16908
H         -0.76634        1.34087        1.31817
H         -1.22728        2.14726       -0.16703
F          1.35599        2.33710        0.31019
H          0.78885        1.34827       -1.31542
