8

C          0.90640       -0.01667       -0.09319
C          0.36759        0.73978        1.12747
F         -0.16780        1.93683        0.75594
Cl        -0.87834       -0.18765        2.00491
F          1.37543        1.03397        1.99666
F          1.47707       -1.19988        0.24830
F          1.85387        0.69890       -0.75136
F         -0.06929       -0.29554       -0.99460
