8

F          3.37801        0.75714       -0.55524
C          2.36450        0.01920       -0.01974
C          2.88472       -1.16777        0.79965
O          3.59552       -2.08164        0.39723
O          2.49616       -1.17536        2.10055
H          2.90507       -1.98451        2.47531
F          1.60431        0.88860        0.70489
F          1.58890       -0.38078       -1.06712
