11

C          1.78110        1.07429       -1.07881
O          1.20395        1.28445       -2.13452
O          2.05252        2.10614       -0.25284
H          1.71982        2.90549       -0.71387
C          2.20379       -0.26227       -0.54765
C          3.16014       -0.85666       -1.54730
F          2.57473       -1.08549       -2.74498
F          4.24051       -0.07256       -1.76046
F          3.61718       -2.05867       -1.11310
F          2.80220       -0.17727        0.68245
H          1.31317       -0.88475       -0.42290
