39

C         -1.44465        3.21587       -0.31320
C         -1.32151        1.90329        0.13810
C         -0.06626        1.27563        0.18904
C          1.09001        1.96920       -0.21683
C          0.93880        3.29742       -0.67147
C         -0.31332        3.91379       -0.71854
H         -0.40296        4.93533       -1.07823
H          1.81276        3.85491       -1.00571
C          2.47152        1.34519       -0.19101
O          3.03083        1.45321       -1.50185
H          3.95203        1.15541       -1.42892
C          3.37765        2.00857        0.76693
C          4.12199        2.59010        1.50875
C          4.97378        3.37315        2.33398
C          5.23555        3.13687        3.62615
C          4.81573        2.05763        4.49051
C          5.06396        2.33734        5.77562
C          5.69551        3.68239        5.93212
C          6.02135        4.09489        4.49341
H          5.74584        5.13938        4.31526
H          7.09587        3.98179        4.30239
H          6.60174        3.63462        6.54324
H          4.99374        4.38152        6.40033
H          4.84663        1.69900        6.62080
O          4.29072        0.92799        3.93478
S          3.82672       -0.37774        4.79926
C          3.45328       -1.48896        3.38600
F          2.14980       -1.89581        3.36705
F          3.68881       -0.91370        2.16933
F          4.20217       -2.63169        3.41045
O          4.98087       -0.87438        5.53589
O          2.60818       -0.03261        5.51610
H          5.39176        4.26414        1.87050
H          2.42615        0.27636        0.03593
C         -0.03298       -0.07899        0.64925
C         -0.05851       -1.21975        1.02573
H         -0.11483       -2.23098        1.35737
H         -2.21460        1.36320        0.44566
H         -2.42290        3.68761       -0.35310
