16

C         -0.78112        1.20537       -0.03436
C          0.61630        1.26853       -0.07622
C          1.36906        0.08112       -0.09457
C          0.73486       -1.16822       -0.07513
C         -0.66465       -1.19948       -0.04707
C         -1.42083       -0.03209       -0.02037
F         -2.75784       -0.06417        0.04442
N         -1.34335       -2.47523       -0.04891
O         -0.95277       -3.31479        0.77296
O         -2.22456       -2.65178       -0.89814
H          1.30579       -2.09547       -0.08762
N          2.83635        0.15167       -0.14223
O          3.45915       -0.91811       -0.15993
O          3.35653        1.27471       -0.16573
H          1.10066        2.24450       -0.09201
H         -1.37499        2.11610       -0.01142
