45

C         -1.51452       -1.13753       -0.41357
C         -2.67171       -0.37073       -0.26515
C         -2.58231        1.00282       -0.07774
C         -1.34010        1.64861       -0.03664
C         -0.17037        0.87593       -0.18185
C         -0.26161       -0.50347       -0.36757
N          0.97644       -1.03804       -0.47256
N          1.85442       -0.05991       -0.35284
N          1.22189        1.14958       -0.19396
C          1.89380        2.41661       -0.06326
C          3.25073        2.60074       -0.07915
C          3.93941        3.95270        0.08056
H          4.45596        4.00245        1.04391
H          4.68080        4.09439       -0.71432
H          3.27285        4.81496        0.02303
C          4.28891        1.50853       -0.27804
S          4.78276        0.77074        1.31808
C          5.99739       -0.41566        0.65050
C          5.34499       -1.50056       -0.19659
C          6.35404       -2.53905       -0.65517
H          6.78522       -3.07315        0.19633
H          5.86551       -3.27032       -1.30705
H          7.16619       -2.07160       -1.22132
H          4.54173       -1.99129        0.36480
H          4.88975       -1.07096       -1.09296
H          6.75436        0.13813        0.08544
H          6.49193       -0.86626        1.51850
O          5.55631        1.80378        2.08502
H          3.92676        0.74500       -0.96203
H          5.19207        1.90729       -0.75446
C          1.07895        3.63453        0.14480
C          0.63837        4.39125       -0.95427
C         -0.16708        5.51062       -0.74890
C         -0.52400        5.87039        0.54667
C         -0.07867        5.14554        1.64673
C          0.73531        4.02847        1.44852
H          1.08230        3.45834        2.30832
H         -0.36935        5.44661        2.64657
F         -1.32303        6.92792        0.73812
H         -0.52638        6.09789       -1.58826
H          0.90942        4.10459       -1.96892
H         -1.32632        2.71995        0.11277
H         -3.49094        1.59120        0.04170
H         -3.64767       -0.85170       -0.29392
H         -1.57426       -2.21058       -0.55953
