8

F          1.52531        1.03553        0.08117
C          2.29700       -0.08840        0.07011
C          2.80720       -0.49350        1.45811
O          3.51250       -1.45909        1.72740
O          2.41822        0.32530        2.46888
H          2.82148       -0.06656        3.27274
F          1.53699       -1.06456       -0.50262
F          3.31712        0.16054       -0.79931
