16

C         -0.77042        1.16948        0.00461
C          0.62308        1.26401       -0.02344
C          1.39438        0.09369       -0.07367
C          0.77991       -1.16751       -0.09502
C         -0.62409       -1.24545       -0.06892
C         -1.39152       -0.08033       -0.01874
F         -2.73001       -0.10277        0.00871
N         -1.26911       -2.55872       -0.09888
O         -0.52641       -3.55009       -0.13477
O         -2.50366       -2.61660       -0.08917
H          1.38422       -2.07355       -0.13341
N          2.86106        0.19194       -0.10800
O          3.36005        1.32500       -0.10697
O          3.50466       -0.86481       -0.13695
H          1.08771        2.24921       -0.00649
H         -1.38298        2.06767        0.04335
