18

C          0.73187        1.25305       -0.22523
C         -0.72303        1.25667        0.22511
C         -1.45207       -0.00343       -0.22910
C         -0.72280       -1.26680        0.22329
C          0.73811       -1.26740       -0.22223
C          1.46269       -0.00357        0.22919
H          2.48661        0.00484       -0.16169
H          1.55599        0.00401        1.32234
H          0.78511       -1.34377       -1.31552
H          1.24697       -2.14960        0.18211
H         -1.23134       -2.15025       -0.17876
H         -0.76921       -1.34123        1.31686
H         -1.53473       -0.00270       -1.32298
H         -2.47298       -0.00383        0.16882
H         -0.76637        1.34074        1.31822
H         -1.22731        2.14724       -0.16691
F          1.35598        2.33710        0.31030
H          0.78882        1.34838       -1.31535
