14

C          1.05813       -0.05910        0.12763
C          0.58601       -0.97434        1.24691
F          0.15679       -0.27803        2.32628
F         -0.45295       -1.75205        0.83649
F          1.55796       -1.81097        1.68102
C          0.49167        1.33096        0.17909
C         -1.04907        1.35083        0.21518
F         -1.54689        0.29879       -0.45854
F         -1.51486        1.32649        1.46570
F         -1.51576        2.47661       -0.35436
F          0.99036        2.01184        1.25717
F          0.95281        2.01422       -0.92071
F          0.83840       -0.64500       -1.09264
F          2.43314        0.04527        0.17853
