18

C          2.45198       -0.66095        0.03231
C          2.43051        0.73028        0.02459
C          1.20805        1.40634        0.00701
C         -0.00834        0.70011       -0.00535
C          0.01156       -0.71330        0.00475
C          1.25280       -1.36825        0.02390
F          1.30476       -2.71007        0.03245
C         -1.20466       -1.41901       -0.00663
C         -2.42333       -0.73994       -0.03171
C         -2.44239        0.65172       -0.04364
C         -1.24378        1.36773       -0.02880
H         -1.28163        2.45489       -0.03777
H         -3.39110        1.18209       -0.06506
H         -3.35572       -1.29853       -0.04290
H         -1.20255       -2.50746        0.00269
H          1.20985        2.49459        0.00145
H          3.36210        1.29024        0.03142
H          3.39251       -1.20227        0.04427
