8

C          0.96608       -0.02762       -0.06850
C          0.44770       -0.59843       -1.41891
Cl         1.01019       -2.29492       -1.70419
Cl        -1.36023       -0.63160       -1.49733
Cl         1.01015        0.37917       -2.83448
F          1.73158       -0.91482        0.61786
F         -0.03929        0.32779        0.77240
F          1.73154        1.08291       -0.22654
