45

C         -1.15556       -1.34388       -0.58369
C         -2.10886       -0.78861       -1.43778
C         -1.92294        0.49752       -1.94098
C         -0.81709        1.28599       -1.57818
C          0.11594        0.73126       -0.68155
C         -0.03158       -0.58193       -0.23192
N          1.04141       -0.94160        0.50946
N          1.87136        0.08111        0.54372
N          1.32663        1.16611       -0.09949
C          1.93785        2.46102       -0.13480
C          3.29221        2.67050       -0.03075
C          3.93691        4.05115       -0.12244
H          4.18809        4.43092        0.87184
H          4.85415        3.99576       -0.72054
H          3.32340        4.80181       -0.62258
C          4.37391        1.59014        0.08977
S          5.31891        1.74363        1.66559
C          6.28421        0.21227        1.46489
C          7.36835        0.05385        2.53079
C          6.83441       -0.05901        3.95227
H          6.03390       -0.80177        4.01950
H          7.63783       -0.36482        4.63125
H          6.45074        0.90075        4.31162
H          7.93308       -0.85920        2.30562
H          8.08337        0.88366        2.48063
H          5.59004       -0.63202        1.49459
H          6.75698        0.24016        0.47721
O          6.27652        2.88978        1.50944
H          4.00145        0.56850        0.04542
H          5.08398        1.68434       -0.73555
C          1.07699        3.68582       -0.07120
C          0.81533        4.48126       -1.19628
C          0.22948        5.74516       -1.05211
C         -0.10118        6.21782        0.21674
C          0.10894        5.43346        1.34172
C          0.69289        4.16832        1.19890
H          0.90366        3.58912        2.09704
H         -0.14099        5.82514        2.32271
F         -0.60015        7.45256        0.35369
H          0.07219        6.38828       -1.91151
H          1.12888        4.15637       -2.18591
H         -0.69018        2.27075       -2.01388
H         -2.66006        0.89814       -2.63998
H         -2.97771       -1.36769       -1.72082
H         -1.26468       -2.35711       -0.20855
