17

C         -1.45586       -0.05829       -0.03404
C         -0.77979        1.16542        0.09033
C          0.61203        1.23952        0.01179
C          1.35822        0.07977       -0.15001
C          0.70834       -1.15053       -0.21821
C         -0.69878       -1.23664       -0.14838
C         -1.32585       -2.60701       -0.17653
F         -0.70486       -3.44945       -1.05457
F         -1.27480       -3.23708        1.03043
F         -2.64066       -2.61417       -0.54852
H          1.30413       -2.05774       -0.31571
H          2.44293        0.12976       -0.20126
H          1.10976        2.20220        0.09543
H         -1.34094        2.08259        0.25508
N         -2.84000       -0.07386        0.18980
H         -3.33100       -0.87715       -0.20222
H         -3.30907        0.79821       -0.03838
