15

C         -1.39379       -0.07298       -0.08312
C         -0.75235        1.17337       -0.05335
C          0.64039        1.24692        0.00368
C          1.38873        0.07641        0.02861
C          0.77141       -1.16796       -0.00252
C         -0.62091       -1.24358       -0.05930
H         -1.10197       -2.21897       -0.08532
H          1.37596       -2.06868        0.01655
F          2.72519        0.14866        0.08197
H          1.14463        2.20735        0.02786
H         -1.33225        2.09330       -0.07422
C         -2.88978       -0.16775       -0.15345
H         -3.19268       -0.63560       -1.09558
H         -3.27070       -0.76214        0.68332
H         -3.35769        0.82077       -0.10071
