11

C          1.06515        0.14558       -0.03730
F          2.21405       -0.48592        0.27029
F          0.15900       -0.19674        0.91057
C          0.54693       -0.23827       -1.38026
C          1.57599        0.12127       -2.39539
F          1.85142        1.43933       -2.40389
F          2.72815       -0.55295       -2.21613
F          1.12046       -0.19634       -3.63168
H          0.33998       -1.31259       -1.41483
H         -0.39104        0.28667       -1.58798
F          1.26646        1.47256        0.07232
