8

F          3.32306        0.21980       -0.77212
C          2.29577       -0.07065        0.07576
C          2.79513       -0.50116        1.46003
O          3.46620       -1.49280        1.72209
O          2.44719        0.33121        2.47473
H          2.84152       -0.07724        3.27474
F          1.50244        1.03779        0.10462
F          1.56255       -1.04558       -0.53289
