8

C          0.96299        0.07304        0.07380
C          0.44459       -1.37370       -0.16357
Cl         1.00705       -2.51982        1.11936
Cl        -1.36334       -1.45769       -0.17734
Cl         1.00702       -2.04977       -1.74549
F          1.72847        0.53162       -0.94989
F          1.72848        0.18046        1.19035
F         -0.04236        0.97394        0.22162
