8

F          1.58522       -0.38282       -1.06351
C          2.35714        0.01900       -0.01412
C          2.88719       -1.16718        0.80009
O          3.60556       -2.07335        0.39370
O          2.49874       -1.18366        2.10094
H          2.91436       -1.99101        2.47218
F          3.36450        0.76789       -0.54600
F          1.58943        0.87868        0.71418
