8

C          0.96608       -0.02762       -0.06850
C          0.44770       -0.59843       -1.41891
Cl         1.01019       -2.29492       -1.70418
Cl        -1.36023       -0.63160       -1.49733
Cl         1.01015        0.37917       -2.83448
F          1.73155        1.08291       -0.22655
F          1.73158       -0.91481        0.61786
F         -0.03928        0.32780        0.77240
