8

C          0.91650       -0.01345       -0.11076
C          0.35257        0.75945        1.08806
F         -0.65331        1.59143        0.69617
Cl        -0.27395       -0.32348        2.35971
F          1.30800        1.56053        1.63871
F         -0.02116       -0.79654       -0.70223
F          1.94394       -0.82726        0.24185
F          1.39063        0.82145       -1.07048
