11

C          0.90974        0.04249       -0.07681
O          0.16661        0.99089       -0.27505
O          0.38892       -1.18044        0.16430
H         -0.58460       -1.05070        0.12764
C          2.40375        0.06355       -0.03470
C          2.92331       -0.30706       -1.40368
F          1.95902       -0.68346       -2.27371
F          3.59592        0.71541       -1.98306
F          3.79554       -1.34392       -1.31408
F          2.89972        1.27598        0.36435
H          2.73807       -0.65594        0.71910
