9

C          0.93485        0.01853        0.01571
C          0.40714        0.15719       -1.41526
F         -0.21086       -0.98057       -1.80999
F         -0.47828        1.16969       -1.52903
F          1.41771        0.38547       -2.28520
O          0.57543       -1.21467        0.66065
H          0.51837       -1.90223       -0.02828
H          0.55680        0.83632        0.63800
H          2.02596        0.07824        0.01691
