11

C          1.13264       -0.04912        0.02799
F          1.53008        0.63031        1.12294
F          2.22758       -0.62942       -0.50236
C          0.40522        0.81057       -0.96127
C          1.11304        2.09741       -1.19622
F          1.47394        2.71952       -0.04855
F          2.22856        1.95803       -1.93708
F          0.29974        2.96919       -1.86024
F          0.18838        0.14192       -2.12899
H         -0.59977        1.01901       -0.57310
F          0.31629       -1.04404        0.46864
