17

C         -1.38911       -0.11818       -0.08387
C         -0.77322        1.14241       -0.06824
C          0.61710        1.25287       -0.01753
C          1.40226        0.10373        0.02686
C          0.79912       -1.15417        0.03196
C         -0.59347       -1.26881       -0.01363
H         -1.02295       -2.26563        0.02211
H          1.41744       -2.04845        0.07758
H          2.48502        0.18735        0.06446
H          1.08417        2.23353       -0.00901
H         -1.37442        2.04984       -0.09731
C         -2.87884       -0.15784       -0.13997
C         -3.58170       -1.33842       -0.79356
F         -2.75571       -2.24378       -1.38747
F         -4.32829       -2.04370        0.10177
F         -4.44216       -0.93578       -1.77125
O         -3.49209        0.80311        0.33679
