17

C          1.20528        0.00117       -0.13513
C          0.67947       -1.42154       -0.04284
C          1.03334       -2.10530        1.25922
C          0.43906       -1.46083        2.49076
C          0.87082       -2.27704        3.71298
O          1.67816       -1.58219        4.56974
H          1.82879       -0.65031        4.30318
O          0.54242       -3.42779        3.95074
F          0.89203       -0.17393        2.61935
F         -0.90958       -1.36008        2.39772
F          0.62123       -3.40857        1.17639
F          2.39284       -2.16529        1.38364
F         -0.66471       -1.45264       -0.26965
F          1.22739       -2.16558       -1.05933
F          2.27471        0.22400        0.66068
F          0.25672        0.90381        0.21645
F          1.58432        0.31323       -1.39836
