17

C          1.23693       -3.41375        0.84196
C          0.40842       -2.43614        0.03140
C          0.22535       -1.09966        0.72225
C         -0.41930       -1.07382        2.09513
C         -1.84540       -1.58774        2.04929
O         -2.77346       -0.62403        2.29949
H         -2.37378        0.24735        2.52076
O         -2.16052       -2.74878        1.83561
F          0.34600       -1.73394        3.00482
F         -0.44179        0.22980        2.54147
F          1.45113       -0.49006        0.82220
F         -0.49958       -0.27371       -0.10186
F          1.03445       -2.20808       -1.17005
F         -0.79289       -2.97560       -0.30555
F          1.49749       -4.54453        0.14223
F          0.60982       -3.79651        1.97493
F          2.42965       -2.88779        1.20275
