25

C         -1.27319        1.46503        0.01925
C         -2.47896        0.61525       -0.38385
C         -2.42659       -0.74376        0.30049
C         -1.17743       -1.49949       -0.14118
C          0.07759       -0.66899       -0.05664
C          0.03337        0.71861       -0.01643
C          1.27161        1.35648        0.05844
N          2.43933        0.65862        0.03565
C          2.36907       -0.66669       -0.05333
N          1.23445       -1.36163       -0.07854
N          3.55187       -1.36946       -0.07526
H          4.28539       -0.82837        0.35964
H          3.39884       -2.30760        0.26645
C          1.37155        2.87333        0.13309
F          2.59313        3.33109        0.53299
F          1.12453        3.47323       -1.06760
F          0.48037        3.42795        1.00824
H         -1.06425       -2.40085        0.47253
H         -1.29610       -1.82483       -1.18208
H         -2.41974       -0.60910        1.38964
H         -3.31958       -1.32829        0.05286
H         -2.48962        0.47713       -1.47254
H         -3.40414        1.13888       -0.11826
H         -1.23147        2.33469       -0.64641
H         -1.42890        1.83087        1.04184
