15

C         -1.39374       -0.07300       -0.08291
C         -0.75236        1.17330       -0.05293
C          0.64034        1.24694        0.00386
C          1.38873        0.07634        0.02849
C          0.77130       -1.16789       -0.00262
C         -0.62097       -1.24360       -0.05904
H         -1.10197       -2.21895       -0.08513
H          1.37594       -2.06865        0.01644
F          2.72530        0.14868        0.08141
H          1.14461        2.20736        0.02792
H         -1.33229        2.09329       -0.07368
C         -2.88978       -0.16777       -0.15358
H         -3.19244       -0.63597       -1.09561
H         -3.27094       -0.76181        0.68332
H         -3.35768        0.82080       -0.10142
