11

C          1.00188       -0.24293       -0.41212
F          0.43161       -1.00535        0.55377
F          2.33849       -0.33947       -0.23286
C          0.52691        1.17399       -0.30572
C          1.20057        1.96839       -1.38262
F          0.81690        3.26785       -1.32019
F          2.54542        1.96209       -1.24531
F          0.91265        1.52679       -2.62355
F         -0.83184        1.23593       -0.44288
H          0.77089        1.58416        0.67881
F          0.70470       -0.81248       -1.59742
