13

C         -1.40449       -0.07854       -0.04282
C         -0.79247        1.16947       -0.04654
C          0.59674        1.23269       -0.01850
C          1.37259        0.07752        0.01293
C          0.74797       -1.16938        0.01731
C         -0.64582       -1.24614       -0.01044
H         -1.14036       -2.21402       -0.00738
H          1.34241       -2.07885        0.04194
H          2.45476        0.15668        0.03379
F          1.19934        2.42938       -0.02213
H         -1.36189        2.09070       -0.07033
O         -2.76188       -0.20577       -0.07118
H         -3.15990        0.68006       -0.10147
